%chk=methane.chk
# B3LYP/6-311G(d,p) Opt Freq

Methane

0 1
 C              
 H                  1    1.08687747
 H                  1    1.08687747    2  109.47122063
 H                  1    1.08687747    2  109.47122063    3  120.00000000    0
 H                  1    1.08687747    2  109.47122063    3 -120.00000000    0

